/*--------------------------------*- C++ -*----------------------------------*\
  =========                 |
  \\      /  F ield         | OpenFOAM: The Open Source CFD Toolbox
   \\    /   O peration     | Website:  https://openfoam.org
    \\  /    A nd           | Version:  10
     \\/     M anipulation  |
\*---------------------------------------------------------------------------*/
FoamFile
{
    format      ascii;
    class       dictionary;
    location    "system";
    object      fvSolution;
}
// * * * * * * * * * * * * * * * * * * * * * * * * * * * * * * * * * * * * * //

solvers
{
    p
    {
        solver          PCG;
        preconditioner  DIC;
        tolerance       1e-08;
        relTol          0.05;
    }
    
    p_d
    {
        solver          PCG;
        preconditioner  DIC;
        tolerance       1e-08;
        relTol          0.05;
    }    
     
    ip_d
    {
        solver          PCG;
        preconditioner  DIC;
        tolerance       1e-08;
        relTol          0.05;
    }      
                                  
    pFinal
    {
        $p;
        relTol          0;
    }
    
    p_dFinal
    {
        $p_d;
        relTol          0;
    }
    
    ip_dFinal
    {
        $p_d;
        relTol          0;
    }    
    
    U
    {
        solver          smoothSolver;
        smoother        symGaussSeidel;
        tolerance       1e-08;
        relTol          0;
    }
    
    U_d
    {
        solver          smoothSolver;
        smoother        symGaussSeidel;
        tolerance       1e-08;
        relTol          0;
    }
    
    iU_d
    {
        solver          smoothSolver;
        smoother        symGaussSeidel;
        tolerance       1e-08;
        relTol          0;
    }
    
 
    
    UFinal
    {
        $U;
        relTol          0;
    }
    
    U_dFinal
    {
        $U_d;
        relTol          0;
    }
    
    iU_dFinal
    {
        $iU_d;
        relTol          0;
    }
    
}

PIMPLE
{
    nOuterCorrectors    2;
    nCorrectors         2;
    nNonOrthogonalCorrectors 0;
    pRefCell            0;
    pRefValue           0;
}

relaxationFactors
{
    equations
    {
        ".*"   1;
    }
}

// ************************************************************************* //
